Version 4
SHEET 1 880 680
WIRE 512 -96 512 -128
WIRE 512 -96 464 -96
WIRE 560 -96 512 -96
WIRE 464 -80 464 -96
WIRE 560 -80 560 -96
WIRE 400 160 400 -16
WIRE 464 160 400 160
WIRE 624 160 624 -16
WIRE 624 160 544 160
FLAG 464 48 0
FLAG 560 48 0
FLAG 304 -64 0
FLAG 304 -144 Vdd
FLAG 512 -256 Vdd
FLAG 192 -64 0
FLAG 192 -144 V2
FLAG 624 -16 V2
FLAG 96 -64 0
FLAG 96 -144 Vb
FLAG 448 -192 Vb
SYMBOL cktsym\\pmos3 512 -192 R0
SYMATTR InstName U1
SYMBOL cktsym\\pmos3 464 -16 R0
SYMATTR InstName U2
SYMBOL cktsym\\pmos3 560 -16 R180
SYMATTR InstName U3
SYMBOL voltage 448 160 R270
WINDOW 0 32 56 VTop 2
WINDOW 3 -32 56 VBottom 2
WINDOW 123 0 0 Left 0
WINDOW 39 0 0 Left 0
SYMATTR InstName Vdm
SYMATTR Value 0
SYMBOL voltage 304 -160 R0
WINDOW 123 0 0 Left 0
WINDOW 39 0 0 Left 0
SYMATTR InstName Vdd
SYMATTR Value 5
SYMBOL voltage 192 -160 R0
WINDOW 123 0 0 Left 0
WINDOW 39 0 0 Left 0
SYMATTR InstName V2
SYMATTR Value 0.5
SYMBOL voltage 96 -160 R0
WINDOW 123 0 0 Left 0
WINDOW 39 0 0 Left 0
SYMATTR InstName Vb
SYMATTR Value 3.5
TEXT 88 40 Left 2 !.include engr2420.sub
TEXT 88 80 Left 2 !.dc Vdm -0.5 0.5 0.005
